# Name: LEU
# Created by ModelServer 0.9.12

# model_server_result.job_id: 1XgFjyhod92pAGmopr1ZwQ
# model_server_result.datetime_utc: 2025-03-28 18:32:31
# model_server_result.server_version: 0.9.12
# model_server_result.query_name: ligand
# model_server_result.source_id: pdb-bcif
# model_server_result.entry_id: 8ATC

# model_server_params.name: atom_site
# model_server_params.value: {"auth_asym_id":"A","auth_seq_id":142}

# model_server_stats.io_time_ms: 58
# model_server_stats.parse_time_ms: 10
# model_server_stats.create_model_time_ms: 31
# model_server_stats.query_time_ms: 292
# model_server_stats.encode_time_ms: 0
# model_server_stats.element_count: 8

@<TRIPOS>MOLECULE
LEU
8 7 1
****
****

@<TRIPOS>ATOM
1 N 70.634 62.241 73.502 N.2 1 LEU 0.000
2 CA 70.688 63.336 74.469 C.3 1 LEU 0.000
3 C 71.492 62.879 75.687 C.2 1 LEU 0.000
4 O 72.332 63.621 76.217 O.2 1 LEU 0.000
5 CB 69.293 63.811 74.911 C.3 1 LEU 0.000
6 CG 68.410 64.461 73.868 C.3 1 LEU 0.000
7 CD1 67.054 64.913 74.404 C.3 1 LEU 0.000
8 CD2 69.160 65.652 73.257 C.3 1 LEU 0.000
@<TRIPOS>BOND
1 1 2 1
2 2 3 1
3 2 5 1
4 3 4 2
5 5 6 1
6 6 7 1
7 6 8 1
@<TRIPOS>SUBSTRUCTURE
1 LEU 1
