5 EC: 3.4.21.4
     RDKit          3D

 30 32  0  0  0  0  0  0  0  0999 V2000
   18.1440   -9.2160   12.0880 C   0  0  0  0  0  0  0  0  0  0  0  0
   18.2090   -8.3550   11.1860 O   0  0  0  0  0  0  0  0  0  0  0  0
   19.1360  -10.3680   12.3490 C   0  0  0  0  0  0  0  0  0  0  0  0
   19.6170  -11.1920   11.2710 N   0  0  0  0  0  0  0  0  0  0  0  0
   18.9480  -12.3840   10.7680 C   0  0  1  0  0  0  0  0  0  0  0  0
   17.4640  -12.2730   11.0760 C   0  0  0  0  0  0  0  0  0  0  0  0
   16.4050  -12.6450   10.0700 C   0  0  0  0  0  0  0  0  0  0  0  0
   15.8690  -13.9960    9.6210 C   0  0  0  0  0  0  0  0  0  0  0  0
   16.7480  -14.8180    8.6800 C   0  0  0  0  0  0  0  0  0  0  0  0
   18.1820  -14.8970    9.1880 C   0  0  0  0  0  0  0  0  0  0  0  0
   19.2410  -13.9450    8.6070 C   0  0  0  0  0  0  0  0  0  0  0  0
   19.5170  -12.6340    9.3730 C   0  0  0  0  0  0  0  0  0  0  0  0
   17.0770   -9.1690   12.9290 N   0  0  0  0  0  0  0  0  0  0  0  0
   16.1240   -8.1230   12.8880 C   0  0  2  0  0  0  0  0  0  0  0  0
   16.6770   -6.7160   12.8730 C   0  0  0  0  0  0  0  0  0  0  0  0
   17.6510   -6.4370   13.5740 O   0  0  0  0  0  0  0  0  0  0  0  0
   15.2700   -8.3010   14.1440 C   0  0  0  0  0  0  0  0  0  0  0  0
   15.6350   -9.6200   14.8050 C   0  0  0  0  0  0  0  0  0  0  0  0
   16.9800   -9.9810   14.1930 C   0  0  0  0  0  0  0  0  0  0  0  0
   16.0940   -5.8290   12.1060 N   0  0  0  0  0  0  0  0  0  0  0  0
   16.4830   -4.4560   12.0400 C   0  0  0  0  0  0  0  0  0  0  0  0
   17.1400   -4.2180   10.7210 C   0  0  0  0  0  0  0  0  0  0  0  0
   18.2830   -4.9340   10.3640 C   0  0  0  0  0  0  0  0  0  0  0  0
   18.8740   -4.7050    9.1490 C   0  0  0  0  0  0  0  0  0  0  0  0
   18.3670   -3.7720    8.2440 C   0  0  0  0  0  0  0  0  0  0  0  0
   19.0080   -3.5050    6.8910 C   0  0  0  0  0  0  0  0  0  0  0  0
   18.1940   -3.1330    5.9020 N   0  0  0  0  0  0  0  0  0  0  0  0
   20.3180   -3.6390    6.7170 N   0  0  0  0  0  0  0  0  0  0  0  0
   17.2220   -3.0650    8.6120 C   0  0  0  0  0  0  0  0  0  0  0  0
   16.6200   -3.2920    9.8430 C   0  0  0  0  0  0  0  0  0  0  0  0
  1  2  1  0
  1  3  1  0
  1 13  1  0
  3  4  1  0
  5  4  1  6
  5  6  1  0
  5 12  1  0
  6  7  1  0
  7  8  1  0
  8  9  1  0
  9 10  1  0
 10 11  1  0
 11 12  1  0
 13 14  1  0
 13 19  1  0
 14 15  1  1
 14 17  1  0
 15 16  1  0
 15 20  1  0
 17 18  1  0
 18 19  1  0
 20 21  1  0
 21 22  1  0
 22 23  1  0
 22 30  1  0
 23 24  1  0
 24 25  1  0
 25 26  1  0
 25 29  1  0
 26 27  1  0
 26 28  1  0
 29 30  1  0
M  END
